
  EPA STORM WATER MANAGEMENT MODEL - VERSION 5.1 (Build 5.1.010)
  --------------------------------------------------------------

  LOS PENASQUITOS CARROLL CANYON N1 MODEL 
  {zachary.snyder@mbakerintl.com - 2017.09.08} OUTFALL AT I-15 NEAR WILLOW CREEK ROAD 
  
  *********************************************************
  NOTE: The summary statistics displayed in this report are
  based on results found at every computational time step,  
  not just on results from each reporting time step.
  *********************************************************
  
  ****************
  Analysis Options
  ****************
  Flow Units ............... CFS
  Process Models:
    Rainfall/Runoff ........ YES
    RDII ................... NO
    Snowmelt ............... NO
    Groundwater ............ NO
    Flow Routing ........... YES
    Ponding Allowed ........ YES
    Water Quality .......... YES
  Infiltration Method ...... GREEN_AMPT
  Flow Routing Method ...... DYNWAVE
  Starting Date ............ JAN-01-2016 00:00:00
  Ending Date .............. JAN-02-2016 06:00:00
  Antecedent Dry Days ...... 0.0
  Report Time Step ......... 00:05:00
  Wet Time Step ............ 00:05:00
  Dry Time Step ............ 00:05:00
  Routing Time Step ........ 0.50 sec
  Variable Time Step ....... YES
  Maximum Trials ........... 8
  Number of Threads ........ 1
  Head Tolerance ........... 0.080000 ft
  
  
  **************************        Volume         Depth
  Runoff Quantity Continuity     acre-feet        inches
  **************************     ---------       -------
  Total Precipitation ......         3.335         4.248
  Evaporation Loss .........         0.044         0.056
  Infiltration Loss ........         1.139         1.451
  Surface Runoff ...........         2.144         2.730
  Final Storage ............         0.012         0.015
  Continuity Error (%) .....        -0.110
  
  
  **************************         water
  Runoff Quality Continuity            lbs
  **************************    ----------
  Initial Buildup ..........         0.000
  Surface Buildup ..........         0.000
  Wet Deposition ...........      9063.320
  Sweeping Removal .........         0.000
  Infiltration Loss ........      3096.472
  BMP Removal ..............         0.000
  Surface Runoff ...........      5825.014
  Remaining Buildup ........        32.576
  Continuity Error (%) .....         1.205
  
  
  **************************        Volume        Volume
  Flow Routing Continuity        acre-feet      10^6 gal
  **************************     ---------     ---------
  Dry Weather Inflow .......         0.000         0.000
  Wet Weather Inflow .......         2.144         0.699
  Groundwater Inflow .......         0.000         0.000
  RDII Inflow ..............         0.000         0.000
  External Inflow ..........         0.000         0.000
  External Outflow .........         1.778         0.579
  Flooding Loss ............         0.353         0.115
  Evaporation Loss .........         0.002         0.001
  Exfiltration Loss ........         0.000         0.000
  Initial Stored Volume ....         0.000         0.000
  Final Stored Volume ......         0.006         0.002
  Continuity Error (%) .....         0.236
  
  
  **************************         water
  Quality Routing Continuity           lbs
  **************************    ----------
  Dry Weather Inflow .......         0.000
  Wet Weather Inflow .......      5824.386
  Groundwater Inflow .......         0.000
  RDII Inflow ..............         0.000
  External Inflow ..........         0.000
  External Outflow .........      4834.875
  Flooding Loss ............       958.763
  Exfiltration Loss ........         0.000
  Mass Reacted .............         0.000
  Initial Stored Mass ......         0.000
  Final Stored Mass ........        17.093
  Continuity Error (%) .....         0.234
  
  
  ***************************
  Time-Step Critical Elements
  ***************************
  None
  
  
  ********************************
  Highest Flow Instability Indexes
  ********************************
  All links are stable.
  
  
  *************************
  Routing Time Step Summary
  *************************
  Minimum Time Step           :     0.50 sec
  Average Time Step           :     0.50 sec
  Maximum Time Step           :     0.50 sec
  Percent in Steady State     :     0.00
  Average Iterations per Step :     2.00
  Percent Not Converging      :     0.00
  
  
  ***************************
  Subcatchment Runoff Summary
  ***************************
  
  --------------------------------------------------------------------------------------------------------
                            Total      Total      Total      Total      Total       Total     Peak  Runoff
                           Precip      Runon       Evap      Infil     Runoff      Runoff   Runoff   Coeff
  Subcatchment                 in         in         in         in         in    10^6 gal      CFS
  --------------------------------------------------------------------------------------------------------
  CarE4004                   4.25       0.00       0.06       1.39       2.79        0.11     2.80   0.656
  CarE4006                   4.25       0.00       0.06       1.46       2.72        0.58    13.36   0.640
  
  
  ****************************
  Subcatchment Washoff Summary
  ****************************
  
  ----------------------------------
                               water
  Subcatchment                   lbs
  ----------------------------------
  CarE4004                   958.857
  CarE4006                  4866.157
  ----------------------------------
  System                    5825.014
  
  
  ******************
  Node Depth Summary
  ******************
  
  ---------------------------------------------------------------------------------
                                 Average  Maximum  Maximum  Time of Max    Reported
                                   Depth    Depth      HGL   Occurrence   Max Depth
  Node                 Type         Feet     Feet     Feet  days hr:min        Feet
  ---------------------------------------------------------------------------------
  569                  JUNCTION     0.16     0.53   463.10     0  12:16        0.53
  574                  JUNCTION     0.11     0.46   474.44     0  12:15        0.46
  577                  JUNCTION     0.16     0.71   479.12     0  12:15        0.71
  580                  JUNCTION     0.15     0.62   476.01     0  12:15        0.62
  581                  JUNCTION     0.17     0.73   467.00     0  12:15        0.73
  582                  JUNCTION     0.00     0.00   500.08     0  00:00        0.00
  593                  JUNCTION     0.16     0.69   478.24     0  12:15        0.69
  599                  JUNCTION     0.07     0.36   496.36     0  12:11        0.34
  603                  JUNCTION     0.11     0.48   469.48     0  12:15        0.48
  1327                 JUNCTION     0.07     0.32   455.32     0  12:17        0.31
  1331                 JUNCTION     0.19     0.60   456.60     0  12:17        0.59
  J30                  JUNCTION     0.00     0.00   509.48     0  00:05        0.00
  1328                 OUTFALL      0.05     0.27   454.27     0  12:17        0.26
  Outfall-TR-DD-4006   OUTFALL      0.00     0.00     0.00     0  00:00        0.00
  BMP-MU-4006-BI-FU    STORAGE      1.61     2.33   500.33     0  12:10        2.33
  
  
  *******************
  Node Inflow Summary
  *******************
  
  -------------------------------------------------------------------------------------------------
                                  Maximum  Maximum                  Lateral       Total        Flow
                                  Lateral    Total  Time of Max      Inflow      Inflow     Balance
                                   Inflow   Inflow   Occurrence      Volume      Volume       Error
  Node                 Type           CFS      CFS  days hr:min    10^6 gal    10^6 gal     Percent
  -------------------------------------------------------------------------------------------------
  569                  JUNCTION      0.00     9.77     0  12:15           0        0.58       0.056
  574                  JUNCTION      0.00     9.76     0  12:15           0        0.58       0.000
  577                  JUNCTION      0.00    11.98     0  12:11           0       0.582       0.293
  580                  JUNCTION      0.00     9.76     0  12:15           0        0.58       0.001
  581                  JUNCTION      0.00     9.76     0  12:15           0        0.58       0.000
  582                  JUNCTION      0.00     0.00     0  00:00           0           0       0.000 gal
  593                  JUNCTION      0.00     9.76     0  12:15           0        0.58       0.001
  599                  JUNCTION      0.00    13.07     0  12:10           0       0.582       0.007
  603                  JUNCTION      0.00     9.76     0  12:15           0        0.58       0.000
  1327                 JUNCTION      0.00     9.66     0  12:17           0       0.579       0.015
  1331                 JUNCTION      0.00     9.71     0  12:16           0        0.58       0.086
  J30                  JUNCTION      2.80     2.80     0  12:10       0.115       0.115       0.000
  1328                 OUTFALL       0.00     9.65     0  12:17           0       0.579       0.000
  Outfall-TR-DD-4006   OUTFALL       0.00     0.00     0  00:06           0    0.000306       0.000
  BMP-MU-4006-BI-FU    STORAGE      13.36    13.36     0  12:10       0.583       0.583      -0.000
  
  
  **********************
  Node Surcharge Summary
  **********************
  
  Surcharging occurs when water rises above the top of the highest conduit.
  ---------------------------------------------------------------------
                                               Max. Height   Min. Depth
                                   Hours       Above Crown    Below Rim
  Node                 Type      Surcharged           Feet         Feet
  ---------------------------------------------------------------------
  J30                  JUNCTION       30.00          0.000        0.000
  
  
  *********************
  Node Flooding Summary
  *********************
  
  Flooding refers to all water that overflows a node, whether it ponds or not.
  --------------------------------------------------------------------------
                                                             Total   Maximum
                                 Maximum   Time of Max       Flood    Ponded
                        Hours       Rate    Occurrence      Volume     Depth
  Node                 Flooded       CFS   days hr:min    10^6 gal      Feet
  --------------------------------------------------------------------------
  J30                    25.75      2.80      0  12:10       0.115     0.000
  
  
  **********************
  Storage Volume Summary
  **********************
  
  --------------------------------------------------------------------------------------------------
                         Average     Avg  Evap Exfil       Maximum     Max    Time of Max    Maximum
                          Volume    Pcnt  Pcnt  Pcnt        Volume    Pcnt     Occurrence    Outflow
  Storage Unit          1000 ft3    Full  Loss  Loss      1000 ft3    Full    days hr:min        CFS
  --------------------------------------------------------------------------------------------------
  BMP-MU-4006-BI-FU        1.060      16     0     0         1.538      23       0  12:10      13.07
  
  
  ***********************
  Outfall Loading Summary
  ***********************
  
  -------------------------------------------------------------------------
                         Flow       Avg       Max       Total         Total
                         Freq      Flow      Flow      Volume         water
  Outfall Node           Pcnt       CFS       CFS    10^6 gal           lbs
  -------------------------------------------------------------------------
  1328                  91.93      0.78      9.65       0.579      4832.329
  Outfall-TR-DD-4006     0.00      0.00      0.00       0.000         2.548
  -------------------------------------------------------------------------
  System                45.97      0.78      9.65       0.579      4834.876
  
  
  ********************
  Link Flow Summary
  ********************
  
  -----------------------------------------------------------------------------
                                 Maximum  Time of Max   Maximum    Max/    Max/
                                  |Flow|   Occurrence   |Veloc|    Full    Full
  Link                 Type          CFS  days hr:min    ft/sec    Flow   Depth
  -----------------------------------------------------------------------------
  C1812                CONDUIT      9.76     0  12:15     10.96    0.25    0.33
  C1813                CONDUIT      9.77     0  12:15      7.68    0.07    0.16
  C1814                CONDUIT      0.00     0  00:00      0.00    0.00    0.12
  C1816                CONDUIT      9.76     0  12:15     17.24    0.12    0.24
  C1819                CONDUIT      9.76     0  12:15     10.02    0.27    0.35
  C1823                CONDUIT      9.76     0  12:15     14.26    0.20    0.27
  C2673                CHANNEL      9.71     0  12:16      2.18    0.00    0.04
  C2677                CONDUIT      9.76     0  12:15     12.13    0.13    0.30
  C2708                CHANNEL      9.66     0  12:17      3.14    0.00    0.03
  C2709                CHANNEL      9.65     0  12:17      2.28    0.00    0.01
  C2749                CHANNEL     11.98     0  12:11      1.69    0.00    0.03
  W-4006               WEIR        12.99     0  12:10                      0.05
  INF-4006             DUMMY        0.00     0  00:06
  OL17                 DUMMY        0.00     0  00:00
  TR-DD-4006           DUMMY        0.08     0  00:59
  
  
  ***************************
  Flow Classification Summary
  ***************************
  
  -------------------------------------------------------------------------------------
                      Adjusted    ---------- Fraction of Time in Flow Class ---------- 
                       /Actual         Up    Down  Sub   Sup   Up    Down  Norm  Inlet 
  Conduit               Length    Dry  Dry   Dry   Crit  Crit  Crit  Crit  Ltd   Ctrl  
  -------------------------------------------------------------------------------------
  C1812                   1.00   0.04  0.00  0.00  0.00  0.96  0.00  0.00  0.00  0.00
  C1813                   1.00   0.04  0.00  0.00  0.02  0.94  0.00  0.00  0.07  0.00
  C1814                   1.00   0.03  0.97  0.00  0.00  0.00  0.00  0.00  0.00  0.00
  C1816                   1.00   0.04  0.00  0.00  0.00  0.96  0.00  0.00  0.96  0.00
  C1819                   1.00   0.03  0.00  0.00  0.01  0.96  0.00  0.00  0.01  0.00
  C1823                   1.00   0.04  0.00  0.00  0.00  0.96  0.00  0.00  0.00  0.00
  C2673                   1.00   0.04  0.00  0.00  0.93  0.04  0.00  0.00  0.91  0.00
  C2677                   1.00   0.04  0.00  0.00  0.00  0.96  0.00  0.00  0.96  0.00
  C2708                   1.00   0.06  0.00  0.00  0.02  0.93  0.00  0.00  0.00  0.00
  C2709                   1.00   0.07  0.00  0.00  0.89  0.04  0.00  0.00  0.01  0.00
  C2749                   1.00   0.03  0.00  0.00  0.96  0.02  0.00  0.00  0.94  0.00
  
  
  *************************
  Conduit Surcharge Summary
  *************************
  
  No conduits were surcharged.
  
  
  ***************************
  Link Pollutant Load Summary
  ***************************
  
  ----------------------------------
                               water
  Link                           lbs
  ----------------------------------
  C1812                     4840.085
  C1813                     4839.918
  C1814                        0.000
  C1816                     4840.012
  C1819                     4840.117
  C1823                     4840.032
  C2673                     4837.242
  C2677                     4839.985
  C2708                     4833.075
  C2709                     4832.329
  C2749                     4854.291
  W-4006                    4379.605
  INF-4006                     2.548
  OL17                         0.000
  TR-DD-4006                 475.169
  

  Analysis begun on:  Fri Oct 06 10:03:35 2017
  Analysis ended on:  Fri Oct 06 10:03:40 2017
  Total elapsed time: 00:00:05